Pcp_File_Version=4
*** BLOCK I: ATMOSPHERIC INFORMATION  **********************************
   MaxAL                    (MaxAL = number of atmospheric data-records)
   2193
 DailyVar  SinusVar  lLay  lBCCycles lInterc lDummy  lDummy  lDummy  lDummy  lDummy
       f       f       t       f       f       f       f       f       f       f
 Extinction
    0.39
 hCritS                 (max. allowed pressure head at the soil surface)
     10
       tAtm        Prec       rSoil       rRoot      hCritA          rB          hB          ht        tTop        tBot        Ampl        cTop        cBot   RootDepth
      14608           0        0.05           1       10000           0    -12.4587           0         1.7         6.4         8.1     14.5906           0 
      14609        0.56        0.04           1       10000           0    -10.6283           0         1.4         6.3         6.1     14.5906           0 
      14610           0        0.07           1       10000           0      -8.798           0        -0.2         6.3         7.5     14.5906           0 
      14611        0.16        0.08           1       10000           0     -6.9677           0         0.5         6.1         7.4     14.5906           0 
      14612        1.99        0.07           1       10000           0     -5.1481           0         2.4         6.1         9.9     14.5906           0 
      14613        1.21        0.02           1       10000           0     -3.3935           0         0.2           6         2.1     14.5906           0 
      14614        0.87        0.03           1       10000           0     -1.7686           0        -0.2         5.8         9.2     14.5906           0 
      14615        1.91        0.03           1       10000           0     -0.3384           0         0.9         5.7         2.4     14.4882           0 
      14616        0.08        0.03           1       10000           0      0.8323           0         0.8         5.7         2.5     14.4882           0 
      14617        0.15        0.02           1       10000           0      1.6786           0         1.2         5.5         5.9     14.4882           0 
      14618           0        0.03           1       10000           0      2.1356           0        -1.2         5.5         8.8     14.4882           0 
      14619        0.35        0.04           1       10000           0      2.1669           0        -3.4         5.4        10.1     14.4882           0 
      14620        0.53        0.05           1       10000           0      1.8497           0         0.7         5.4         6.4     14.4882           0 
      14621           0        0.01           1       10000           0      1.2897           0        -3.5         5.3          12     14.4882           0 
      14622           0           0           1       10000           0      0.5925           0        -9.6         5.3        13.5     3.27565           0 
      14623           0           0           1       10000           0     -0.1361           0       -11.6         5.2        13.5     3.27565           0 
      14624           0        0.02           1       10000           0     -0.7904           0        -6.4         5.2        17.3     3.27565           0 
      14625           0        0.05           1       10000           0     -1.2649           0        -5.4         5.2        15.7     3.27565           0 
      14626         1.3        0.11           1       10000           0     -1.4833           0         4.5         5.1        16.1     3.27565           0 
      14627        3.43        0.03           1       10000           0     -1.4871           0           1         5.1         4.7     3.27565           0 
      14628        1.89        0.06           1       10000           0     -1.3474           0         0.5           5        10.2     3.27565           0 
      14629        0.04        0.09           1       10000           0     -1.1354           0         4.9           5         7.9     11.3078           0 
      14630        2.01        0.03           1       10000           0      -0.922           0         2.8           5         6.7     11.3078           0 
      14631        0.54        0.02           1       10000           0     -0.7783           0        -0.8         4.9           6     11.3078           0 
      14632           0        0.02           1       10000           0     -0.7754           0        -6.6         4.9        11.8     11.3078           0 
      14633           0           0           1       10000           0     -0.9618           0        -6.4         4.8        14.5     11.3078           0 
      14634         0.2        0.01           1       10000           0      -1.296           0        -0.6         4.8          14     11.3078           0 
      14635        0.07        0.01           1       10000           0     -1.7138           0         0.1         4.8         2.2     11.3078           0 
      14636           0           0           1       10000           0     -2.1511           0          -2         4.7         2.1     8.99265           0 
      14637           0           0           1       10000           0      -2.544           0        -2.5         4.7         1.7     8.99265           0 
      14638        0.07           0           1       10000           0     -2.8282           0        -3.7         4.7         6.1     8.99265           0 
      14639         0.2           0           1       10000           0     -2.9397           0        -7.3         4.6         2.8     8.99265           0 
      14640        0.09           0           1       10000           0     -2.8331           0       -10.1         4.6         4.9     8.99265           0 
      14641           0           0           1       10000           0     -2.5375           0       -13.9         4.5         8.2     8.99265           0 
      14642        0.01           0           1       10000           0     -2.1008           0       -16.1         4.5        10.9     8.99265           0 
      14643           0           0           1       10000           0     -1.5709           0       -14.1         4.5        11.2     10.6978           0 
      14644        0.14           0           1       10000           0     -0.9955           0       -15.3         4.4        11.5     10.6978           0 
      14645        0.01           0           1       10000           0     -0.4225           0         -12         4.4         4.1     10.6978           0 
      14646           0           0           1       10000           0      0.1002           0       -12.6         4.4         9.5     10.6978           0 
      14647        0.14           0           1       10000           0      0.5347           0       -11.3         4.4        12.4     10.6978           0 
      14648        0.02           0           1       10000           0      0.8822           0       -10.8         4.3         3.7     10.6978           0 
      14649           0           0           1       10000           0      1.1538           0       -12.5         4.3         6.4     10.6978           0 
      14650           0           0           1       10000           0      1.3606           0       -15.6         4.3        11.8     7.84935           0 
      14651        0.08           0           1       10000           0      1.5136           0       -10.8         4.3        15.6     7.84935           0 
      14652        0.05           0           1       10000           0      1.6239           0        -4.1         4.3         6.3     7.84935           0 
      14653        1.66           0           1       10000           0      1.7027           0        -0.7         4.3         4.3     7.84935           0 
      14654        0.05        0.03           1       10000           0        1.76           0        -1.5         4.3          10     7.84935           0 
      14655           0        0.04           1       10000           0      1.8021           0        -2.5         4.2        12.7     7.84935           0 
      14656           0        0.08           1       10000           0      1.8344           0        -0.6         4.1        13.1     7.84935           0 
      14657        0.34        0.02           1       10000           0      1.8621           0        -0.9           4        10.9     9.29129           0 
      14658        0.01           0           1       10000           0      1.8906           0        -2.5           4         8.6     9.29129           0 
      14659           0        0.03           1       10000           0      1.9252           0        -5.9         3.9        15.1     9.29129           0 
      14660           0        0.08           1       10000           0      1.9712           0        -3.3         3.9        21.2     9.29129           0 
      14661        0.01        0.08           1       10000           0      2.0326           0         0.2         3.9        14.5     9.29129           0 
      14662           0        0.15           1       10000           0      2.1085           0         4.9         3.8        14.7     9.29129           0 
      14663        0.91        0.02           1       10000           0      2.1965           0         3.2         3.8         6.6     9.29129           0 
      14664        0.78        0.03           1       10000           0      2.2943           0         0.8         3.8         2.1     12.4327           0 
      14665           0        0.08       1.001       10000           0      2.3996           0         1.2         3.8         7.1     12.4327           0 
      14666           0        0.07       1.001       10000           0      2.5102           0         2.2         3.8         8.2     12.4327           0 
      14667           0         0.1       1.001       10000           0      2.6237           0         3.7         3.8        12.3     12.4327           0 
      14668           0        0.15       1.001       10000           0      2.7343           0         4.6         3.8        18.8     12.4327           0 
      14669           0        0.16       1.001       10000           0       2.822           0         5.1         3.8        18.3     12.4327           0 
      14670           0        0.13       1.001       10000           0      2.8633           0           5         3.8        16.5     12.4327           0 
      14671           0        0.05       1.001       10000           0      2.8347           0         4.7         3.8         7.3     13.8156           0 
      14672        0.18        0.06       1.001       10000           0      2.7127           0         1.4         3.8         4.9     13.8156           0 
      14673           0        0.04       1.002       10000           0      2.4739           0         0.4         3.7         3.7     13.8156           0 
      14674           0        0.13       1.002       10000           0      2.0947           0         1.7         3.7        14.1     13.8156           0 
      14675        0.79        0.04       1.002       10000           0      1.5703           0         1.4         3.7         4.6     13.8156           0 
      14676           0         0.1       1.003       10000           0      0.9711           0         0.6         3.7        11.2     13.8156           0 
      14677           0        0.15       1.003       10000           0      0.3861           0         0.7         3.7          16     13.8156           0 
      14678        0.06        0.03       1.003       10000           0     -0.0956           0         1.6         3.8           5     14.1081           0 
      14679           0        0.08       1.004       10000           0     -0.3849           0         5.2         3.8        10.1     14.1081           0 
      14680           0        0.11       1.005       10000           0     -0.3929           0         5.7         3.8        12.6     14.1081           0 
      14681           0        0.18       1.005       10000           0     -0.0304           0         6.8         3.9        15.7     14.1081           0 
      14682           0        0.19       1.006       10000           0      0.7322           0         6.6         3.9        20.1     14.1081           0 
      14683           0        0.26       1.007       10000           0      1.6866           0           8         3.9        23.1     14.1081           0 
      14684           0        0.25       1.008       10000           0      2.5651           0         9.1         3.9        20.7     14.1081           0 
      14685        0.87        0.24       1.009       10000           0         3.1           0         8.8         3.9        17.9      9.6962           0 
      14686        0.54        0.03       1.011       10000           0      3.0237           0         2.9         3.9         3.7      9.6962           0 
      14687           0        0.16       1.012       10000           0      2.0684           0         5.9           4        13.7      9.6962           0 
      14688           0        0.22       1.014       10000           0     -0.0336           0         6.1           4        18.5      9.6962           0 
      14689           0        0.23       1.016       10000           0     -3.4097           0         7.7         4.1        18.6      9.6962           0 
      14690           0        0.22       1.019       10000           0     -7.6262           0         8.5         4.1        18.5      9.6962           0 
      14691        0.08        0.15       1.022       10000           0    -12.1091           0         6.8         4.2        15.8      9.6962           0 
      14692           0         0.2       1.025       10000           0    -16.2843           0         7.5         4.2        16.3     10.4629           0 
      14693           0        0.24       1.029       10000           0    -19.5779           0         7.9         4.3        16.2     10.4629           0 
      14694           0        0.25       1.033       10000           0    -21.4159           0         7.2         4.2        16.9     10.4629           0 
      14695           0        0.27       1.039       10000           0    -21.8409           0         9.7         4.3        20.4     10.4629           0 
      14696        0.27        0.28       1.044       10000           0    -22.8031           0        10.8         4.3        14.8     10.4629           0 
      14697        0.02        0.09       1.051       10000           0    -24.3094           0         8.2         4.4         5.6     10.4629           0 
      14698        0.36        0.24       1.059       10000           0    -25.3379           0         9.2         4.4        16.5     10.4629           0 
      14699           0        0.19       1.068       10000           0    -26.7951           0         2.9         4.5        10.5     14.2243           0 
      14700           0        0.26       1.078       10000           0    -27.0848           0           6         4.6        18.5     14.2243           0 
      14701           0        0.19        1.09       10000           0    -27.1652           0         9.2         4.7        15.6     14.2243           0 
      14702        0.07        0.19       1.103       10000           0    -28.1014           0         9.4         4.5        16.1     14.2243           0 
      14703         1.4        0.06       1.119       10000           0    -24.9292           0         8.6         4.6         4.2     14.2243           0 
      14704        0.06        0.06       1.137       10000           0    -24.1222           0         6.8         4.7         3.4     14.2243           0 
      14705        1.25        0.06       1.157       10000           0    -22.9868           0         4.6         4.8           8     14.2243           0 
      14706        0.34        0.04        1.18       10000           0    -22.5972           0        -0.9         4.9         7.5      15.978           0 
      14707           0        0.13       1.207       10000           0    -16.9324           0         1.6           5        17.1      15.978           0 
      14708           0         0.3       1.237       10000           0    -12.9563           0          11         5.2        17.3      15.978           0 
      14709        1.07        0.07       1.272       10000           0       -10.7           0         4.6         5.2         7.7      15.978           0 
      14710        0.02         0.2       1.311       10000           0     -9.1165           0           7         5.3        14.4      15.978           0 
      14711        0.27        0.06       1.355       10000           0      -8.032           0         5.4         5.4         2.6      15.978           0 
      14712        0.03        0.05       1.405       10000           0     -7.3712           0         6.1         5.4           4      15.978           0 
      14713        1.48        0.05       1.462       10000           0     -7.0586           0         5.8         5.5           3     15.0466           0 
      14714        0.64        0.06       1.525       10000           0     -7.0191           0         2.7         5.5         3.2     15.0466           0 
      14715           0        0.16       1.596       10000           0     -7.1772           0         4.3         5.6         9.3     15.0466           0 
      14716        0.13        0.11       1.675       10000           0     -7.4575           0         4.3         5.6         9.9     15.0466           0 
      14717        0.36        0.26       1.763       10000           0     -7.8004           0         7.9         5.7        15.7     15.0466           0 
      14718        0.23        0.14        1.86       10000           0     -8.2075           0         5.3         5.7           7     15.0466           0 
      14719        0.58        0.31       1.967       10000           0     -8.6963           0         7.7         5.8        16.1     15.0466           0 
      14720        0.35        0.14       2.083       10000           0     -9.2841           0           5         5.9          11     10.4515           0 
      14721           0        0.24       2.209       10000           0     -9.9883           0         6.5         5.9        14.8     10.4515           0 
      14722        1.35        0.12       2.345       10000           0    -10.8261           0         3.2           6           8     10.4515           0 
      14723           0        0.32        2.49       10000           0     -11.815           0         9.1           6        18.5     10.4515           0 
      14724           0        0.51       2.643       10000           0    -12.9554           0        16.1         6.1        18.5     10.4515           0 
      14725           0         0.5       2.805       10000           0    -14.1794           0        17.3         6.2        23.6     10.4515           0 
      14726           0        0.62       2.972       10000           0    -15.4025           0        19.3         6.2        20.4     10.4515           0 
      14727           0        0.46       3.145       10000           0      -16.54           0          20         6.3        15.9     12.1005           0 
      14728           0        0.41       3.322       10000           0    -17.5072           0        16.7         6.4        18.7     12.1005           0 
      14729           0        0.31         3.5       10000           0    -18.2196           0        13.7         6.5        11.8     12.1005           0 
      14730        0.43         0.4       3.678       10000           0    -18.7279           0        16.5         6.6        15.2     12.1005           0 
      14731           0        0.23       3.855       10000           0    -19.3812           0        12.7         6.8        11.8     12.1005           0 
      14732           0        0.38       4.028       10000           0    -19.9547           0        13.4         6.9          17     12.1005           0 
      14733        0.45        0.21       4.195       10000           0    -20.7845           0         9.6         7.1        10.1     12.1005           0 
      14734        0.79        0.14       4.357       10000           0    -21.5896           0         7.7         7.2         6.5     14.0733           0 
      14735           0        0.23        4.51       10000           0    -22.4271           0        10.1         7.4        12.8     14.0733           0 
      14736        0.03        0.38       4.655       10000           0    -23.1375           0        13.2         7.5        19.4     14.0733           0 
      14737        0.07        0.25       4.791       10000           0    -24.0062           0        14.1         7.6        13.5     14.0733           0 
      14738           0        0.48       4.917       10000           0    -24.9181           0        17.6         7.7          20     14.0733           0 
      14739        0.54        0.54       5.033       10000           0    -25.6063           0        19.6         7.8        21.9     14.0733           0 
      14740        0.98        0.06        5.14       10000           0    -26.3472           0        10.1         7.9          10     14.0733           0 
      14741        0.14        0.19       5.237       10000           0    -26.8104           0         6.7         8.1         7.1     16.5889           0 
      14742           0        0.31       5.325       10000           0    -27.3514           0         7.3         8.2        14.8     16.5889           0 
      14743        0.81        0.29       5.404       10000           0    -28.1375           0         8.7         8.3        18.8     16.5889           0 
      14744        1.83        0.12       5.475       10000           0    -28.9937           0         2.8         8.4         7.6     16.5889           0 
      14745           0        0.27       5.538       10000           0    -29.7424           0         6.3         8.5        13.9     16.5889           0 
      14746           0        0.28       5.595       10000           0    -30.1236           0        11.7         8.6        19.4     16.5889           0 
      14747           0        0.41       5.645       10000           0    -30.9406           0        15.2         8.7        19.5     16.5889           0 
      14748           0        0.44       5.689       10000           0    -31.5744           0        17.2         8.7        18.1     14.9878           0 
      14749           0        0.34       5.728       10000           0     -32.525           0        16.5         8.8        14.8     14.9878           0 
      14750        0.73        0.23       5.763       10000           0    -34.2702           0        13.1         8.8        13.9     14.9878           0 
      14751        2.17         0.3       5.793       10000           0    -35.7797           0        16.1         8.9        11.8     14.9878           0 
      14752        0.07        0.29        5.82       10000           0    -35.3896           0        15.1           9        13.8     14.9878           0 
      14753           0        0.46       5.843       10000           0    -35.4743           0        13.8         9.1        14.8     14.9878           0 
      14754           0        0.46       5.863       10000           0    -35.1722           0        12.7         9.2        16.4     14.9878           0 
      14755           0         0.4       5.881       10000           0    -34.4799           0        13.1         9.3        16.5     14.9683           0 
      14756        1.18        0.31       5.897       10000           0    -33.4604           0        13.3         9.4         9.8     14.9683           0 
      14757        0.72         0.3        5.91       10000           0    -31.9986           0        13.5         9.5        13.7     14.9683           0 
      14758        0.22         0.3       5.922       10000           0    -30.1757           0          15         9.6        15.4     14.9683           0 
      14759        1.11        0.37       5.932       10000           0    -29.4819           0        15.9         9.7        11.8     14.9683           0 
      14760        0.23         0.2       5.941       10000           0    -28.3133           0        13.5         9.8         5.5     14.9683           0 
      14761           0        0.38       5.949       10000           0    -27.1562           0        15.8         9.9        10.9     14.9683           0 
      14762        2.46        0.28       5.956       10000           0    -25.5871           0        16.4          10        15.2     17.4427           0 
      14763        0.97        0.18       5.961       10000           0    -18.4028           0        11.4        10.2         6.8     17.4427           0 
      14764        0.05        0.28       5.967       10000           0    -15.4819           0        10.2        10.3         9.4     17.4427           0 
      14765        0.07        0.17       5.971       10000           0    -12.5576           0        12.8        10.4        13.9     17.4427           0 
      14766        0.39        0.37       5.975       10000           0    -10.8536           0        18.3        10.5        14.7     17.4427           0 
      14767        3.06        0.17       5.978       10000           0    -11.6556           0          15        10.6         9.5     17.4427           0 
      14768        2.04        0.15       5.981       10000           0     -3.8794           0        11.7        10.7         6.7     17.4427           0 
      14769        0.44        0.16       5.984       10000           0      0.8197           0        11.4        10.9         5.6     17.2905           0 
      14770         1.7        0.25       5.986       10000           0     -2.5698           0        12.6          11        10.9     17.2905           0 
      14771        2.09        0.07       5.988       10000           0      0.7744           0         9.5        11.2         4.3     17.2905           0 
      14772        0.25        0.29       5.989       10000           0      -2.642           0        11.5        11.3        10.9     17.2905           0 
      14773           0        0.39       5.991       10000           0     -5.3828           0        12.9        11.4        15.5     17.2905           0 
      14774           0        0.56       5.992       10000           0     -9.9424           0        17.7        11.4        21.7     17.2905           0 
      14775           0        0.58       5.993       10000           0    -13.8521           0        21.4        11.4        20.6     17.2905           0 
      14776           0        0.38       5.994       10000           0    -16.3347           0        19.5        11.4        10.2     17.9841           0 
      14777        1.15        0.59       5.995       10000           0    -17.8931           0        22.5        11.4        20.5     17.9841           0 
      14778           0        0.45       5.995       10000           0    -19.4403           0        20.8        11.4        14.2     17.9841           0 
      14779        1.69        0.29       5.996       10000           0    -20.6236           0        18.9        11.5        10.5     17.9841           0 
      14780        0.55        0.41       1.272       10000           0    -21.2465           0        18.7        11.6          12     17.9841           0 
      14781           0        0.28       1.311       10000           0    -22.3056           0        16.8        11.7         9.1     17.9841           0 
      14782           0        0.35       1.355       10000           0    -22.8993           0        16.4        11.8        11.4     17.9841           0 
      14783        0.19        0.47       1.405       10000           0    -23.4931           0        18.2        11.9        16.3     16.3249           0 
      14784        1.27        0.27       1.462       10000           0     -23.875           0        14.1        11.9         7.2     16.3249           0 
      14785        0.01         0.4       1.525       10000           0     -22.859           0        15.6        12.1        13.7     16.3249           0 
      14786           0        0.38       1.596       10000           0    -20.5104           0        18.3        12.1        11.4     16.3249           0 
      14787        1.42        0.46       1.675       10000           0    -19.1989           0        20.2        12.2        16.2     16.3249           0 
      14788        0.09        0.49       1.763       10000           0    -16.7697           0        21.3        12.3        16.9     16.3249           0 
      14789           0        0.53        1.86       10000           0    -12.9008           0        23.7        12.4        16.3     16.3249           0 
      14790        0.88        0.36       1.967       10000           0    -11.1243           0        19.3        12.4        13.8     19.7637           0 
      14791        0.84        0.16       2.083       10000           0    -13.0642           0        15.9        12.5         9.4     19.7637           0 
      14792        1.12        0.12       2.209       10000           0    -13.9485           0        17.4        12.7           6     19.7637           0 
      14793        0.71        0.34       2.345       10000           0    -10.2496           0        18.2        12.8          12     19.7637           0 
      14794        0.55        0.42        2.49       10000           0     -8.1942           0        18.8          13        14.3     19.7637           0 