Pcp_File_Version=4
      1
Garmisch lysimeter 3

   NOBB     MIT iWeight
   6084     100       2
  lWatF  lChemF    NMat   lTempF
      t       t       3       f
  Model   Hysteresis
      3       0
     NS  ConcType   lBact    lFiltr   lDualNEq
      1         0       0        f       f
    thr     ths    Alfa       n         Ks       l
   0.09 0.489428 0.00104138 1.33432        7.5     0.5 
      0       0       1       1          1       0 
      0       0       0     1.2          0       0 
      0    0.55    0.01     1.5          0       0 
    thr     ths    Alfa       n         Ks       l
   0.09 0.480691 0.00986791 1.07016        3.2     0.5 
      0       0       1       1          1       0 
      0       0   0.001    1.01          0       0 
      0    0.55    0.02     1.2          0       0 
    thr     ths    Alfa       n         Ks       l
   0.09 0.482902 0.00897928 1.05073        3.2     0.5 
      0       0       1       1          1       0 
      0       0   0.001    1.01          0       0 
      0    0.55    0.02     1.2          0       0 
Bulk.d.   DisperL.    Frac     MobileWC DifW     DifG       Ks       Nu     Beta    Henry    SnkL1    SnkS1    SnkG1   SnkL1'   SnkS1'   SnkG1'    SnkL0    SnkS0    SnkG0     Alfa
     1.5       11        1        0     2.13        0        0        0        1        0        0        0        0        0        0        0        0        0        0        0 
       0        1        0        0        0        0        0        0        0        0        0        0        0        0        0        0        0        0        0        0 
       0        0        0        0        0        0        0        0        0        0        0        0        0        0        0        0        0        0        0        0 
       0        0        0        0        0        0        0        0        0        0        0        0        0        0        0        0        0        0        0        0 
Bulk.d.   DisperL.    Frac     MobileWC DifW     DifG       Ks       Nu     Beta    Henry    SnkL1    SnkS1    SnkG1   SnkL1'   SnkS1'   SnkG1'    SnkL0    SnkS0    SnkG0     Alfa
     1.5      4.2        1        0     2.13        0        0        0        1        0        0        0        0        0        0        0        0        0        0        0 
       0        1        0        0        0        0        0        0        0        0        0        0        0        0        0        0        0        0        0        0 
       0        0        0        0        0        0        0        0        0        0        0        0        0        0        0        0        0        0        0        0 
       0        0        0        0        0        0        0        0        0        0        0        0        0        0        0        0        0        0        0        0 
Bulk.d.   DisperL.    Frac     MobileWC DifW     DifG       Ks       Nu     Beta    Henry    SnkL1    SnkS1    SnkG1   SnkL1'   SnkS1'   SnkG1'    SnkL0    SnkS0    SnkG0     Alfa
     1.5        5        1        0     2.13        0        0        0        1        0        0        0        0        0        0        0        0        0        0        0 
       0        1        0        0        0        0        0        0        0        0        0        0        0        0        0        0        0        0        0        0 
       0        0        0        0        0        0        0        0        0        0        0        0        0        0        0        0        0        0        0        0 
       0        0        0        0        0        0        0        0        0        0        0        0        0        0        0        0        0        0        0        0 
      HO(N)         FOS   ITYPE(N) POS     WTS
       15371     -131.306     1     1        1 
       15376     -206.836     1     1        1 
       15377     -615.361     1     1        1 
       15378     -985.594     1     1        1 
       15379     -1113.89     1     1        1 
       15380     -1157.28     1     1        1 
       15381     -1198.93     1     1        1 
       15382     -1226.71     1     1        1 
       15383     -1247.52     1     1        1 
       15384     -1243.89     1     1        1 
       15385     -1227.29     1     1        1 
       15386     -1202.85     1     1        1 
       15387     -1171.48     1     1        1 
       15388     -1151.99     1     1        1 
       15389     -1131.86     1     1        1 
       15390     -1103.59     1     1        1 
       15391        -1075     1     1        1 
       15392     -1089.48     1     1        1 
       15393     -1100.55     1     1        1 
       15394     -1065.18     1     1        1 
       15395      -992.98     1     1        1 
       15396     -528.317     1     1        1 
       15397     -336.871     1     1        1 
       15398     -294.809     1     1        1 
       15399     -261.953     1     1        1 
       15400     -238.078     1     1        1 
       15401     -214.362     1     1        1 
       15428     -206.994     1     1        1 
       15429     -269.523     1     1        1 
       15430     -337.343     1     1        1 
       15431     -416.706     1     1        1 
       15432     -472.272     1     1        1 
       15433     -530.156     1     1        1 
       15434     -593.542     1     1        1 
       15435     -623.572     1     1        1 
       15436     -246.524     1     1        1 
       15461      -1431.9     1     1        1 
       15462     -1842.43     1     1        1 
       15463     -2259.92     1     1        1 
       15464     -2552.01     1     1        1 
       15465     -2837.48     1     1        1 
       15466     -2732.91     1     1        1 
       15467     -215.258     1     1        1 
       15468      -440.48     1     1        1 
       15469     -964.239     1     1        1 
       15470     -1537.42     1     1        1 
       15471      -2222.3     1     1        1 
       15472     -834.932     1     1        1 
       15473     -462.305     1     1        1 
       15474     -849.176     1     1        1 
       15475      -1327.9     1     1        1 
       15476     -1348.98     1     1        1 
       15479      -191.08     1     1        1 
       15480     -264.723     1     1        1 
       15481     -574.529     1     1        1 
       15482     -1142.97     1     1        1 
       15483     -1339.93     1     1        1 
       15484     -210.535     1     1        1 
       15485     -206.905     1     1        1 
       15486     -344.853     1     1        1 
       15487     -450.081     1     1        1 
       15488     -811.517     1     1        1 
       15489      -448.37     1     1        1 
       15490     -230.557     1     1        1 
       15491     -200.211     1     1        1 
       15492     -208.672     1     1        1 
       15494     -174.616     1     1        1 
       15495     -155.055     1     1        1 
       15499     -143.129     1     1        1 
       15502     -133.283     1     1        1 
       15507     -205.824     1     1        1 
       15508     -360.657     1     1        1 
       15509     -626.765     1     1        1 
       15510     -170.868     1     1        1 
       15511     -171.437     1     1        1 
       15516     -136.303     1     1        1 
       15520     -145.638     1     1        1 
       15522     -154.206     1     1        1 
       15523     -132.863     1     1        1 
       15525     -130.076     1     1        1 
       15528     -130.662     1     1        1 
       15529      -131.05     1     1        1 
       15539     -192.974     1     1        1 
       15540     -279.715     1     1        1 
       15541     -389.855     1     1        1 
       15542     -247.692     1     1        1 
       15544     -211.893     1     1        1 
       15545     -202.271     1     1        1 
       15546     -191.861     1     1        1 
       15547     -266.753     1     1        1 
       15548     -467.852     1     1        1 
       15549     -488.954     1     1        1 
       15550     -293.925     1     1        1 
       15551     -198.843     1     1        1 
       15553      -195.96     1     1        1 
       15554     -331.055     1     1        1 
       15555     -407.139     1     1        1 
       15556     -382.938     1     1        1 
       15557     -230.613     1     1        1 
       15561     -180.499     1     1        1 
       15562     -208.956     1     1        1 
       15563     -312.702     1     1        1 
       15564     -522.872     1     1        1 
       15565     -629.913     1     1        1 
       15566     -745.424     1     1        1 
       15567     -1042.59     1     1        1 
       15568     -1133.78     1     1        1 
       15570     -230.364     1     1        1 
       15571     -465.074     1     1        1 
       15572     -814.747     1     1        1 
       15573     -184.594     1     1        1 
       15574     -256.503     1     1        1 
       15575     -312.312     1     1        1 
       15576     -138.431     1     1        1 
       15577     -132.196     1     1        1 
       15582     -132.867     1     1        1 
       15591     -200.648     1     1        1 
       15592     -284.667     1     1        1 
       15593     -423.708     1     1        1 
       15594     -497.272     1     1        1 
       15595     -388.827     1     1        1 
       15601     -205.937     1     1        1 
       15602     -220.433     1     1        1 
       15610     -137.697     1     1        1 
       15637     -191.795     1     1        1 
       15638     -212.928     1     1        1 
       15645      -143.33     1     1        1 
       15649      -201.26     1     1        1 
       15650     -170.743     1     1        1 
       15697     -143.675     1     1        1 
       15698     -161.853     1     1        1 
       15710     -161.281     1     1        1 
       15711     -161.766     1     1        1 
       15739      -151.02     1     1        1 
       15778     -151.646     1     1        1 
       15794     -149.354     1     1        1 
       15812      -175.48     1     1        1 
       15813     -230.662     1     1        1 
       15814     -295.892     1     1        1 
       15815     -177.685     1     1        1 
       15820     -217.194     1     1        1 
       15821     -340.077     1     1        1 
       15822     -500.087     1     1        1 
       15823      -629.32     1     1        1 
       15824     -708.027     1     1        1 
       15825     -795.902     1     1        1 
       15826     -1016.34     1     1        1 
       15827      -1198.7     1     1        1 
       15828     -1233.23     1     1        1 
       15829      -1061.4     1     1        1 
       15830     -796.895     1     1        1 
       15831     -722.391     1     1        1 
       15832      -635.28     1     1        1 
       15833     -493.573     1     1        1 
       15834     -470.206     1     1        1 
       15835      -428.56     1     1        1 
       15841     -246.522     1     1        1 
       15842      -430.05     1     1        1 
       15843     -683.067     1     1        1 
       15844      -1053.3     1     1        1 
       15845     -1143.14     1     1        1 
       15846     -1166.25     1     1        1 
       15847     -923.707     1     1        1 
       15848     -560.008     1     1        1 
       15849     -403.501     1     1        1 
       15850     -289.402     1     1        1 
       15851     -221.226     1     1        1 
       15852     -217.143     1     1        1 
       15853     -307.366     1     1        1 
       15854     -384.778     1     1        1 
       15855     -205.287     1     1        1 
       15857     -166.469     1     1        1 
       15862     -190.725     1     1        1 
       15863     -306.764     1     1        1 
       15864     -651.593     1     1        1 
       15865     -902.199     1     1        1 
       15869      -203.08     1     1        1 
       15870     -244.237     1     1        1 
       15871     -346.839     1     1        1 
       15872     -299.305     1     1        1 
       15873     -340.825     1     1        1 
       15874     -347.196     1     1        1 
       15875     -387.845     1     1        1 
       15876     -475.742     1     1        1 
       15877     -569.948     1     1        1 
       15878     -645.427     1     1        1 
       15879     -678.232     1     1        1 
       15886     -146.596     1     1        1 
       15889     -147.347     1     1        1 
       15890     -155.733     1     1        1 
       15891     -146.701     1     1        1 
       15894     -191.691     1     1        1 
       15895     -239.294     1     1        1 
       15896     -353.648     1     1        1 
       15897     -507.511     1     1        1 
       15898     -779.355     1     1        1 
       15899     -1225.16     1     1        1 
       15900     -1776.06     1     1        1 
       15901      -2322.6     1     1        1 
       15902     -2756.06     1     1        1 
       15903     -3247.39     1     1        1 
       15904     -3641.87     1     1        1 
       15905      -3908.9     1     1        1 
       15906     -4064.87     1     1        1 
       15907     -4300.77     1     1        1 
       15908     -4435.31     1     1        1 
       15909     -4482.02     1     1        1 
       15912     -4484.75     1     1        1 
       15915     -183.277     1     1        1 
       15916     -882.891     1     1        1 
       15917     -2331.16     1     1        1 
       15918     -3296.88     1     1        1 
       15919     -4061.45     1     1        1 
       15920     -2386.89     1     1        1 
       15921     -413.573     1     1        1 
       15922     -1817.99     1     1        1 
       15923      -2370.2     1     1        1 
       15924     -306.116     1     1        1 
       15925      -1201.6     1     1        1 
       15926     -1527.98     1     1        1 
       15927     -189.043     1     1        1 
       15928     -392.162     1     1        1 
       15929     -1120.41     1     1        1 
       15930     -1903.93     1     1        1 
       15931     -2364.03     1     1        1 
       15932     -2733.21     1     1        1 
       15933     -3166.41     1     1        1 
       15934     -3638.86     1     1        1 
       15935     -4018.47     1     1        1 
       15936     -4027.74     1     1        1 
       15938     -233.095     1     1        1 
       15939     -638.201     1     1        1 
       15940     -1431.06     1     1        1 
       15941     -2219.87     1     1        1 
       15942     -1404.54     1     1        1 
       15943     -177.239     1     1        1 
       15944     -193.621     1     1        1 
       15945     -139.557     1     1        1 
       15946      -171.89     1     1        1 
       15947     -234.793     1     1        1 
       15948     -511.826     1     1        1 
       15949     -644.624     1     1        1 
       15951     -172.211     1     1        1 
       15952     -247.509     1     1        1 
       15953     -533.371     1     1        1 
       15954     -934.654     1     1        1 
       15955     -1367.71     1     1        1 
       15956     -1776.98     1     1        1 
       15957     -1191.77     1     1        1 
       15958     -143.933     1     1        1 
       15964     -139.262     1     1        1 
       15972     -211.424     1     1        1 
       15973     -293.861     1     1        1 
       15974      -388.31     1     1        1 
       15975     -225.619     1     1        1 
       15979     -139.512     1     1        1 
       16001     -141.017     1     1        1 
       16053     -192.106     1     1        1 
       16054     -213.723     1     1        1 
       16055      -245.82     1     1        1 
       16056      -348.13     1     1        1 
       16057     -484.792     1     1        1 
       16058     -644.816     1     1        1 
       16059     -527.151     1     1        1 
       16060     -384.989     1     1        1 
       16061     -391.975     1     1        1 
       16062     -379.089     1     1        1 
       16063     -360.951     1     1        1 
       16064     -314.951     1     1        1 
       16065     -176.021     1     1        1 
       16070     -191.818     1     1        1 
       16071      -936.16     1     1        1 
       16072     -1237.75     1     1        1 
       16073     -1265.47     1     1        1 
       16074     -1197.15     1     1        1 
       16075     -1043.42     1     1        1 
       16076     -1051.17     1     1        1 
       16077      -1084.5     1     1        1 
       16078     -1050.03     1     1        1 
       16079     -1067.24     1     1        1 
       16080     -939.082     1     1        1 
       16081     -803.912     1     1        1 
       16082     -653.055     1     1        1 
       16083     -718.501     1     1        1 
       16084     -688.632     1     1        1 
       16085     -507.774     1     1        1 
       16086     -376.177     1     1        1 
       16087     -247.477     1     1        1 
       16088      -182.95     1     1        1 
       16147     -191.385     1     1        1 
       16148     -222.398     1     1        1 
       16149     -284.903     1     1        1 
       16150     -380.988     1     1        1 
       16151     -469.499     1     1        1 
       16152     -429.397     1     1        1 
       16161     -171.663     1     1        1 
       16162     -192.651     1     1        1 
       16163     -255.592     1     1        1 
       16164     -358.491     1     1        1 
       16165     -465.846     1     1        1 
       16166     -512.597     1     1        1 
       16167     -563.986     1     1        1 
       16168     -636.986     1     1        1 
       16169     -733.615     1     1        1 
       16170     -807.043     1     1        1 
       16171     -845.553     1     1        1 
       16172      -899.48     1     1        1 
       16173     -916.721     1     1        1 
       16174     -860.091     1     1        1 
       16175     -323.103     1     1        1 
       16176     -209.787     1     1        1 
       16177     -191.019     1     1        1 
       16178     -199.719     1     1        1 
       16179     -190.123     1     1        1 
       16180     -195.331     1     1        1 
       16181     -193.888     1     1        1 
       16182     -184.136     1     1        1 
       16183     -181.762     1     1        1 
       16184     -190.328     1     1        1 
       16185     -194.938     1     1        1 
       16186     -202.195     1     1        1 
       16187     -171.651     1     1        1 
       16197     -163.462     1     1        1 
       16201     -148.766     1     1        1 
       16209     -222.262     1     1        1 
       16210     -302.649     1     1        1 
       16211     -588.749     1     1        1 
       16212     -904.525     1     1        1 
       16213     -1007.95     1     1        1 
       16214     -1287.85     1     1        1 
       16215     -1612.53     1     1        1 
       16216     -1971.96     1     1        1 
       16222     -1733.99     1     1        1 
       16223     -1778.72     1     1        1 
       16224     -1812.96     1     1        1 
       16225     -1872.96     1     1        1 
       16226     -1591.82     1     1        1 
       16227     -1393.69     1     1        1 
       16228     -1688.34     1     1        1 
       16229     -2131.42     1     1        1 
       16230     -2675.38     1     1        1 
       16231     -3150.28     1     1        1 
       16232     -3497.69     1     1        1 
       16233     -1970.51     1     1        1 
       16234     -2177.66     1     1        1 
       16235     -1872.93     1     1        1 
       16236     -1383.86     1     1        1 
       16237     -1064.11     1     1        1 
       16238     -1007.95     1     1        1 
       16239     -1109.82     1     1        1 
       16240     -1238.46     1     1        1 
       16241     -1328.27     1     1        1 
       16242     -1333.53     1     1        1 
       16243     -1487.32     1     1        1 
       16244     -1811.36     1     1        1 
       16245     -1179.36     1     1        1 
       16246     -467.772     1     1        1 
       16247     -233.932     1     1        1 
       16248      -231.88     1     1        1 
       16249     -239.327     1     1        1 
       16250     -231.639     1     1        1 
       16253      -148.32     1     1        1 
       16256     -202.591     1     1        1 
       16257     -323.416     1     1        1 
       16258     -479.984     1     1        1 
       16259     -286.943     1     1        1 
       16262     -140.409     1     1        1 
       16265      -137.52     1     1        1 
       16267     -161.422     1     1        1 
       16268     -202.424     1     1        1 
       16269     -335.436     1     1        1 
       16270     -629.263     1     1        1 
       16271     -1010.12     1     1        1 
       16272     -948.885     1     1        1 
       16283     -140.152     1     1        1 
       16284     -144.129     1     1        1 
       16289      -142.34     1     1        1 
       16291     -139.058     1     1        1 
       16293     -139.308     1     1        1 
       16306     -141.327     1     1        1 
       16311     -138.462     1     1        1 
       16323     -145.088     1     1        1 
       16331     -191.007     1     1        1 
       16332      -206.47     1     1        1 
       16333     -220.211     1     1        1 
       16334     -185.318     1     1        1 
       16338     -145.842     1     1        1 
       16343      -160.39     1     1        1 
       16351     -184.176     1     1        1 
       16352     -209.316     1     1        1 
       16353     -282.053     1     1        1 
       16354      -319.94     1     1        1 
       16355     -345.559     1     1        1 
       16356     -375.515     1     1        1 
       16357     -362.592     1     1        1 
       16358      -335.03     1     1        1 
       16359     -292.778     1     1        1 
       16360     -227.582     1     1        1 
       16364     -146.548     1     1        1 
       16367     -157.264     1     1        1 
       16368     -170.601     1     1        1 
       16370     -152.238     1     1        1 
       16379     -147.637     1     1        1 
       16515     -138.658     1     1        1 
       16537     -185.791     1     1        1 
       16538      -238.08     1     1        1 
       16539     -350.084     1     1        1 
       16540     -467.762     1     1        1 
       16541      -585.37     1     1        1 
       16542     -658.348     1     1        1 
       16543     -312.813     1     1        1 
       16544     -196.326     1     1        1 
       16545     -221.026     1     1        1 
       16546     -301.623     1     1        1 
       16547     -479.263     1     1        1 
       16548     -662.678     1     1        1 
       16549     -800.782     1     1        1 
       16550     -1031.49     1     1        1 
       16551     -1233.69     1     1        1 
       16552     -1499.56     1     1        1 
       16553     -1661.47     1     1        1 
       16554     -1698.97     1     1        1 
       16555     -1711.85     1     1        1 
       16556     -1541.83     1     1        1 
       16557     -1021.97     1     1        1 
       16561     -144.279     1     1        1 
       16565      -204.98     1     1        1 
       16566     -320.748     1     1        1 
       16567     -578.459     1     1        1 
       16568       -876.2     1     1        1 
       16569     -441.782     1     1        1 
       16570     -195.779     1     1        1 
       16573     -171.437     1     1        1 
       16574     -185.947     1     1        1 
       16576     -170.314     1     1        1 
       16577     -179.851     1     1        1 
       16587     -438.122     1     1        1 
       16588      -142.76     1     1        1 
       16589     -222.954     1     1        1 
       16590     -458.633     1     1        1 
       16591     -876.366     1     1        1 
       16592     -1165.49     1     1        1 
       16594     -144.313     1     1        1 
       16598     -156.115     1     1        1 
       16599     -147.546     1     1        1 
       16601     -138.381     1     1        1 
       16604     -140.568     1     1        1 
       16613     -178.553     1     1        1 
       16615     -187.823     1     1        1 
       16616     -263.292     1     1        1 
       16617     -501.378     1     1        1 
       16618     -827.221     1     1        1 
       16619     -632.932     1     1        1 
       16620     -835.814     1     1        1 
       16621     -1653.16     1     1        1 
       16622      -1674.8     1     1        1 
       16623      -2394.3     1     1        1 
       16624     -1701.52     1     1        1 
       16625     -794.249     1     1        1 
       16626     -1144.73     1     1        1 
       16627     -1651.77     1     1        1 
       16628     -2318.51     1     1        1 
       16629     -2814.09     1     1        1 
       16630     -3057.14     1     1        1 
       16631      -3397.5     1     1        1 
       16632     -3716.54     1     1        1 
       16633     -4040.15     1     1        1 
       16634     -4263.16     1     1        1 
       16635      -4293.9     1     1        1 
       16636     -4272.21     1     1        1 
       16637     -4349.71     1     1        1 
       16638     -3941.79     1     1        1 
       16639     -3351.81     1     1        1 
       16640     -3609.25     1     1        1 
       16641     -3883.71     1     1        1 
       16642     -4003.82     1     1        1 
       16643     -938.348     1     1        1 
       16644     -525.021     1     1        1 
       16645     -303.207     1     1        1 
       16646      -248.95     1     1        1 
       16647      -351.35     1     1        1 
       16648     -661.064     1     1        1 
       16649     -579.166     1     1        1 
       16650     -670.841     1     1        1 
       16651     -1153.86     1     1        1 
       16652     -1120.06     1     1        1 
       16653     -1759.46     1     1        1 
       16654     -2344.93     1     1        1 
       16655     -2251.31     1     1        1 
       16656     -264.102     1     1        1 
       16658      -169.29     1     1        1 
       16659     -204.978     1     1        1 
       16660     -291.071     1     1        1 
       16661     -467.155     1     1        1 
       16662     -180.726     1     1        1 
       16663      -136.86     1     1        1 
       16665     -131.593     1     1        1 
       16671     -192.848     1     1        1 
       16672     -193.471     1     1        1 
       16674     -158.039     1     1        1 
       16675     -201.107     1     1        1 
       16676     -264.513     1     1        1 
       16677     -438.136     1     1        1 
       16678      -676.03     1     1        1 
       16679     -919.191     1     1        1 
       16681     -135.736     1     1        1 
       16689     -179.655     1     1        1 
       16690     -206.074     1     1        1 
       16691     -281.633     1     1        1 
       16692     -349.623     1     1        1 
       16695     -157.797     1     1        1 
       16701     -141.567     1     1        1 
       16709     -202.377     1     1        1 
       16710     -227.078     1     1        1 
       16711     -269.133     1     1        1 
       16712     -299.567     1     1        1 
       16713     -171.551     1     1        1 
       16714     -144.808     1     1        1 
       16721     -148.527     1     1        1 
       16736     -172.844     1     1        1 
       16747      -185.44     1     1        1 
       16748     -193.891     1     1        1 
       16749      -198.94     1     1        1 
       16750     -207.919     1     1        1 
       16751     -219.708     1     1        1 
       16752     -229.878     1     1        1 
       16753     -232.377     1     1        1 
       16754       -225.8     1     1        1 
       16755     -228.749     1     1        1 
       16756     -237.938     1     1        1 
       16757     -245.112     1     1        1 
       16758     -263.034     1     1        1 
       16759     -265.528     1     1        1 
       16782     -270.425     1     1        1 
       16783     -1382.16     1     1        1 
       16784      -2751.6     1     1        1 
       16785     -2683.23     1     1        1 
       16786     -2254.61     1     1        1 
       16787     -1670.84     1     1        1 
       16788     -856.853     1     1        1 
       16789     -256.263     1     1        1 
       16790     -200.606     1     1        1 
       16793     -266.086     1     1        1 
       16794     -797.704     1     1        1 
       16795     -1644.52     1     1        1 