Pcp_File_Version=4
*** BLOCK A: BASIC INFORMATION *****************************************
Heading
Garmisch lysimeter 3
LUnit  TUnit  MUnit  (indicated units are obligatory for all input data)
cm
days
mmol
lWat   lChem lTemp  lSink lRoot lShort lWDep lScreen lVariabBC lEquil lInverse
 t     t     t      t     f     t      f     t       t         t         t
lSnow  lHP1   lMeteo  lVapor lActiveU lFluxes lIrrig  lDummy  lDummy  lDummy
 t       f       f       f       f       f       f       f       f       f
NMat    NLay  CosAlpha
  3       1       1
*** BLOCK B: WATER FLOW INFORMATION ************************************
MaxIt   TolTh   TolH       (maximum number of iterations and tolerances)
  20    0.001      1
TopInf WLayer KodTop InitCond
 t     t      -1       f
BotInf qGWLF FreeD SeepF KodBot DrainF  hSeep
 t     f     f     f      1      f      0
    hTab1   hTabN
    1e-006  100000
    Model   Hysteresis
      3          0
   thr     ths    Alfa      n         Ks       l
   0.09 0.489428 0.00104138 1.33432        7.5     0.5 
   0.09 0.480691 0.00986791 1.07016        3.2     0.5 
   0.09 0.482902 0.00897928 1.05073        3.2     0.5 
*** BLOCK C: TIME INFORMATION ******************************************
        dt       dtMin       dtMax     DMul    DMul2  ItMin ItMax  MPL
       0.01      1e-007         0.5     1.3     0.7     3     7     7
      tInit        tMax
      14607       16800
  lPrintD  nPrintSteps tPrintInterval lEnter
     t           1             1       t
TPrint(1),TPrint(2),...,TPrint(MPL)
    14920.3     15233.6     15546.9     15860.1     16173.4     16486.7 
      16800 
*** BLOCK E: HEAT TRANSPORT INFORMATION *********************************************************
    Qn      Qo    Disper.    B1          B2          B3          Cn          Co           Cw
      5       1      30 -1.2706e+016 -6.20464e+016 1.62598e+017 1.43327e+014 1.8737e+014 3.12035e+014 
      5       1      30 -1.2706e+016 -6.20464e+016 1.62598e+017 1.43327e+014 1.8737e+014 3.12035e+014 
      5       1      30 -1.2706e+016 -6.20464e+016 1.62598e+017 1.43327e+014 1.8737e+014 3.12035e+014 
      tAmpl     tPeriod    Campbell   MeltConst  lDummy  lDummy  lDummy  lDummy  lDummy
          0           1          0        0.43       t       f       f       f       f
   MeltConst   SublimConst   InitSnow
       0.43         0.4           0
      kTopT       TTop      kBotT       TBot
          1         20           1         20
*** BLOCK F: SOLUTE TRANSPORT INFORMATION *****************************************************
 Epsi  lUpW  lArtD lTDep    cTolA    cTolR   MaxItC    PeCr  No.Solutes  lTort   iBacter   lFiltr  nChPar
  0.5     f     f     f         0         0     1        2        1       t       0        f       16
iNonEqul lWatDep lDualNEq lInitM  lInitEq lTort lDummy  lDummy  lDummy  lDummy  lCFTr
   0       f       f       f       f       f       t       f       f       f       f
     Bulk.d.     DisperL.      Frac      Mobile WC (1..NMat)
        1.5          14           1           0 
        1.5          14           1           0 
        1.5          14           1           0 
         DifW       DifG                n-th solute
          0           0 
         Ks          Nu        Beta       Henry       SnkL1       SnkS1       SnkG1       SnkL1'      SnkS1'      SnkG1'      SnkL0       SnkS0       SnkG0        Alfa
          0           0           1           0           0           0           0           0           0           0           0           0           0           0 
          0           0           1           0           0           0           0           0           0           0           0           0           0           0 
          0           0           1           0           0           0           0           0           0           0           0           0           0           0 
      kTopSolute  SolTop    kBotSolute  SolBot
         -1           0           0           0 
      tPulse
        548
*** BLOCK G: ROOT WATER UPTAKE INFORMATION *****************************
     Model  (0 - Feddes, 1 - S shape)  cRootMax    OmegaC
        0                               10000           1
       P0       P2H       P2L       P3          r2H        r2L
      -10      -200      -800     -8000         0.5         0.1
POptm(1),POptm(2),...,POptm(NMat)
     -25      -25      -25 
     Solute Reduction
        f
*** END OF INPUT FILE 'SELECTOR.IN' ************************************
